matpower-plain/case69.m
function mpc = case69
%CASE69  Power flow data for 69 bus distribution system
%   Please see CASEFORMAT for details on the case file format.
%
%   Data from ...
%       M. E. Baran and F. F. Wu, "Optimal capacitor placement on radial
%       distribution systems," in IEEE Transactions on Power Delivery,
%       vol. 4, no. 1, pp. 725-734, Jan. 1989, doi: 10.1109/61.19265.
%       https://doi.org/10.1109/61.19265
%
%   Derived "from a portion of the PG&E distribution system".
%
%   Also in ...
%       D. Das, Optimal placement of capacitors in radial distribution
%       system using a Fuzzy-GA method, International Journal of Electrical
%       Power & Energy Systems, Volume 30, Issues 6–7, July–September 2008,
%       Pages 361-367
%       https://doi.org/10.1016/j.ijepes.2007.08.004
%
%   Modifications:
%     v2 - 2020-09-30 (RDZ)
%         - Cite original source (Baran & Wu)
%         - Specify branch parameters in Ohms, loads in kW.
%         - Added code for explicit conversion of loads from kW to MW and
%           branch parameters from Ohms to p.u.
%         - Set BASE_KV to 12.66 kV (instead of 12.7)
%         - Slack bus Vmin = Vmax = 1.0
%         - Gen Qmin, Qmax, Pmax magnitudes set to 10 (instead of 999)
%         - Branch flow limits disabled, i.e. set to 0 (instead of 999)
%         - Add gen cost.
%
%   Plain-data copy of benchmark-grids/matpower/case69.m: the file's
%   MATLAB statements (below, as they were) are evaluated by
%   scripts/evaluate_matpower_code.py and the matrices hold the result.
%     Vbase = mpc.bus(1, BASE_KV) * 1e3;
%     Sbase = mpc.baseMVA * 1e6;
%     mpc.branch(:, [BR_R BR_X]) = mpc.branch(:, [BR_R BR_X]) / (Vbase^2 / Sbase);
%     mpc.bus(:, [PD, QD]) = mpc.bus(:, [PD, QD]) / 1e3;

%% MATPOWER Case Format : Version 2
mpc.version = '2';

mpc.baseMVA = 10;

mpc.bus = [
	1	3	0	0	0	0	1	1	0	12.66	1	1	1;
	2	1	0	0	0	0	1	1	0	12.66	1	1.1	0.9;
	3	1	0	0	0	0	1	1	0	12.66	1	1.1	0.9;
	4	1	0	0	0	0	1	1	0	12.66	1	1.1	0.9;
	5	1	0	0	0	0	1	1	0	12.66	1	1.1	0.9;
	6	1	0.0026000000000000003	0.0022	0	0	1	1	0	12.66	1	1.1	0.9;
	7	1	0.0404	0.03	0	0	1	1	0	12.66	1	1.1	0.9;
	8	1	0.075	0.054	0	0	1	1	0	12.66	1	1.1	0.9;
	9	1	0.03	0.022	0	0	1	1	0	12.66	1	1.1	0.9;
	10	1	0.028	0.019	0	0	1	1	0	12.66	1	1.1	0.9;
	11	1	0.145	0.10400000000000001	0	0	1	1	0	12.66	1	1.1	0.9;
	12	1	0.145	0.10400000000000001	0	0	1	1	0	12.66	1	1.1	0.9;
	13	1	0.008	0.0055	0	0	1	1	0	12.66	1	1.1	0.9;
	14	1	0.008	0.0055	0	0	1	1	0	12.66	1	1.1	0.9;
	15	1	0	0	0	0	1	1	0	12.66	1	1.1	0.9;
	16	1	0.0455	0.03	0	0	1	1	0	12.66	1	1.1	0.9;
	17	1	0.06	0.035	0	0	1	1	0	12.66	1	1.1	0.9;
	18	1	0.06	0.035	0	0	1	1	0	12.66	1	1.1	0.9;
	19	1	0	0	0	0	1	1	0	12.66	1	1.1	0.9;
	20	1	0.001	0.0006	0	0	1	1	0	12.66	1	1.1	0.9;
	21	1	0.114	0.081	0	0	1	1	0	12.66	1	1.1	0.9;
	22	1	0.0053	0.0035	0	0	1	1	0	12.66	1	1.1	0.9;
	23	1	0	0	0	0	1	1	0	12.66	1	1.1	0.9;
	24	1	0.028	0.02	0	0	1	1	0	12.66	1	1.1	0.9;
	25	1	0	0	0	0	1	1	0	12.66	1	1.1	0.9;
	26	1	0.014	0.01	0	0	1	1	0	12.66	1	1.1	0.9;
	27	1	0.014	0.01	0	0	1	1	0	12.66	1	1.1	0.9;
	28	1	0.026000000000000002	0.018600000000000002	0	0	1	1	0	12.66	1	1.1	0.9;
	29	1	0.026000000000000002	0.018600000000000002	0	0	1	1	0	12.66	1	1.1	0.9;
	30	1	0	0	0	0	1	1	0	12.66	1	1.1	0.9;
	31	1	0	0	0	0	1	1	0	12.66	1	1.1	0.9;
	32	1	0	0	0	0	1	1	0	12.66	1	1.1	0.9;
	33	1	0.014	0.01	0	0	1	1	0	12.66	1	1.1	0.9;
	34	1	0.0195	0.014	0	0	1	1	0	12.66	1	1.1	0.9;
	35	1	0.006	0.004	0	0	1	1	0	12.66	1	1.1	0.9;
	36	1	0.026000000000000002	0.018600000000000002	0	0	1	1	0	12.66	1	1.1	0.9;
	37	1	0.026000000000000002	0.018600000000000002	0	0	1	1	0	12.66	1	1.1	0.9;
	38	1	0	0	0	0	1	1	0	12.66	1	1.1	0.9;
	39	1	0.024	0.017	0	0	1	1	0	12.66	1	1.1	0.9;
	40	1	0.024	0.017	0	0	1	1	0	12.66	1	1.1	0.9;
	41	1	0.0012	0.001	0	0	1	1	0	12.66	1	1.1	0.9;
	42	1	0	0	0	0	1	1	0	12.66	1	1.1	0.9;
	43	1	0.006	0.0043	0	0	1	1	0	12.66	1	1.1	0.9;
	44	1	0	0	0	0	1	1	0	12.66	1	1.1	0.9;
	45	1	0.039200000000000006	0.0263	0	0	1	1	0	12.66	1	1.1	0.9;
	46	1	0.039200000000000006	0.0263	0	0	1	1	0	12.66	1	1.1	0.9;
	47	1	0	0	0	0	1	1	0	12.66	1	1.1	0.9;
	48	1	0.079	0.0564	0	0	1	1	0	12.66	1	1.1	0.9;
	49	1	0.3847	0.2745	0	0	1	1	0	12.66	1	1.1	0.9;
	50	1	0.3847	0.2745	0	0	1	1	0	12.66	1	1.1	0.9;
	51	1	0.0405	0.028300000000000002	0	0	1	1	0	12.66	1	1.1	0.9;
	52	1	0.0036000000000000003	0.0027	0	0	1	1	0	12.66	1	1.1	0.9;
	53	1	0.0043	0.0035	0	0	1	1	0	12.66	1	1.1	0.9;
	54	1	0.0264	0.019	0	0	1	1	0	12.66	1	1.1	0.9;
	55	1	0.024	0.0172	0	0	1	1	0	12.66	1	1.1	0.9;
	56	1	0	0	0	0	1	1	0	12.66	1	1.1	0.9;
	57	1	0	0	0	0	1	1	0	12.66	1	1.1	0.9;
	58	1	0	0	0	0	1	1	0	12.66	1	1.1	0.9;
	59	1	0.1	0.07200000000000001	0	0	1	1	0	12.66	1	1.1	0.9;
	60	1	0	0	0	0	1	1	0	12.66	1	1.1	0.9;
	61	1	1.244	0.888	0	0	1	1	0	12.66	1	1.1	0.9;
	62	1	0.032	0.023	0	0	1	1	0	12.66	1	1.1	0.9;
	63	1	0	0	0	0	1	1	0	12.66	1	1.1	0.9;
	64	1	0.227	0.162	0	0	1	1	0	12.66	1	1.1	0.9;
	65	1	0.059000000000000004	0.042	0	0	1	1	0	12.66	1	1.1	0.9;
	66	1	0.018000000000000002	0.013000000000000001	0	0	1	1	0	12.66	1	1.1	0.9;
	67	1	0.018000000000000002	0.013000000000000001	0	0	1	1	0	12.66	1	1.1	0.9;
	68	1	0.028	0.02	0	0	1	1	0	12.66	1	1.1	0.9;
	69	1	0.028	0.02	0	0	1	1	0	12.66	1	1.1	0.9;
];

mpc.gen = [
	1	0	0	10	-10	1	100	1	10	0	0	0	0	0	0	0	0	0	0	0	0;
];

mpc.branch = [
	1	2	3.119626443451155e-05	7.487103464282772e-05	0	0	0	0	0	0	1	-360	360;
	2	3	3.119626443451155e-05	7.487103464282772e-05	0	0	0	0	0	0	1	-360	360;
	3	4	9.358879330353466e-05	0.00022461310392848317	0	0	0	0	0	0	1	-360	360;
	4	5	0.00156605247461248	0.0018343403487492793	0	0	0	0	0	0	1	-360	360;
	5	6	0.022835665566062455	0.011629967381185907	0	0	0	0	0	0	1	-360	360;
	6	7	0.023771553499097802	0.012110389853477385	0	0	0	0	0	0	1	-360	360;
	7	8	0.005752591161723931	0.002932448856844086	0	0	0	0	0	0	1	-360	360;
	8	9	0.003075951673242839	0.00156605247461248	0	0	0	0	0	0	1	-360	360;
	9	10	0.05109948114372992	0.016889657564844555	0	0	0	0	0	0	1	-360	360;
	10	11	0.011679881404281126	0.00386209753699253	0	0	0	0	0	0	1	-360	360;
	11	12	0.04438604503742304	0.014668483537107332	0	0	0	0	0	0	1	-360	360;
	12	13	0.0642643047350938	0.021213459815467857	0	0	0	0	0	0	1	-360	360;
	13	14	0.06513780013926013	0.021213459815467857	0	0	0	0	0	0	1	-360	360;
	14	15	0.06601129554342645	0.02181242809261048	0	0	0	0	0	0	1	-360	360;
	15	16	0.012266371175649942	0.004055514376486502	0	0	0	0	0	0	1	-360	360;
	16	17	0.02335976280856225	0.00772419507398506	0	0	0	0	0	0	1	-360	360;
	17	18	0.0002932448856844086	9.982804619043698e-05	0	0	0	0	0	0	1	-360	360;
	18	19	0.02043979245749197	0.006757110876515202	0	0	0	0	0	0	1	-360	360;
	19	20	0.013139866579816266	0.004305084491962595	0	0	0	0	0	0	1	-360	360;
	20	21	0.021313287861658294	0.007044116509312709	0	0	0	0	0	0	1	-360	360;
	21	22	0.0008734954041663235	0.0002870056327975063	0	0	0	0	0	0	1	-360	360;
	22	23	0.009926651343061576	0.0032818470185106154	0	0	0	0	0	0	1	-360	360;
	23	24	0.021606532747342703	0.007143944555503146	0	0	0	0	0	0	1	-360	360;
	24	25	0.0467195256171245	0.01544215089508322	0	0	0	0	0	0	1	-360	360;
	25	26	0.019273052167641237	0.006370277197527259	0	0	0	0	0	0	1	-360	360;
	26	27	0.010806386000114802	0.0035688526513081215	0	0	0	0	0	0	1	-360	360;
	3	28	0.00027452712702370167	0.0006738393117854495	0	0	0	0	0	0	1	-360	360;
	28	29	0.0039931218476174785	0.009764430768002116	0	0	0	0	0	0	1	-360	360;
	29	30	0.02481974798409739	0.008204617546276539	0	0	0	0	0	0	1	-360	360;
	30	31	0.004379955526605422	0.001447506669761336	0	0	0	0	0	0	1	-360	360;
	31	32	0.02189977763302711	0.007237533348806681	0	0	0	0	0	0	1	-360	360;
	32	33	0.052347331721110384	0.017569736129516907	0	0	0	0	0	0	1	-360	360;
	33	34	0.10656643930829146	0.03522682179945044	0	0	0	0	0	0	1	-360	360;
	34	35	0.09196658755294006	0.03040387931787496	0	0	0	0	0	0	1	-360	360;
	3	36	0.00027452712702370167	0.0006738393117854495	0	0	0	0	0	0	1	-360	360;
	36	37	0.0039931218476174785	0.009764430768002116	0	0	0	0	0	0	1	-360	360;
	37	38	0.006569933289908133	0.007674281050889842	0	0	0	0	0	0	1	-360	360;
	38	39	0.0018967328776183024	0.00221493477485032	0	0	0	0	0	0	1	-360	360;
	39	40	0.00011230655196424158	0.00013102431062494852	0	0	0	0	0	0	1	-360	360;
	40	41	0.045440478775309524	0.05308980281465176	0	0	0	0	0	0	1	-360	360;
	41	42	0.019341683949397163	0.022604813209247072	0	0	0	0	0	0	1	-360	360;
	42	43	0.0025580936836299474	0.0029823628799393047	0	0	0	0	0	0	1	-360	360;
	43	44	0.0005740112655950126	0.000723753334880668	0	0	0	0	0	0	1	-360	360;
	44	45	0.006794546393836616	0.008566494213716873	0	0	0	0	0	0	1	-360	360;
	45	46	5.615327598212079e-05	7.487103464282772e-05	0	0	0	0	0	0	1	-360	360;
	4	47	0.00021213459815467854	0.0005240972424997941	0	0	0	0	0	0	1	-360	360;
	47	48	0.005309604206753866	0.012996363763417514	0	0	0	0	0	0	1	-360	360;
	48	49	0.018081354866242898	0.044242542221024285	0	0	0	0	0	0	1	-360	360;
	49	50	0.005128665873033699	0.012547137555560547	0	0	0	0	0	0	1	-360	360;
	8	51	0.005790026679045344	0.002951166615504793	0	0	0	0	0	0	1	-360	360;
	51	52	0.020708080331628766	0.007112748291068634	0	0	0	0	0	0	1	-360	360;
	9	53	0.01085630002321002	0.0055279780577954475	0	0	0	0	0	0	1	-360	360;
	53	54	0.01266568336041169	0.00645138748505699	0	0	0	0	0	0	1	-360	360;
	54	55	0.017731956704576366	0.009028198927347643	0	0	0	0	0	0	1	-360	360;
	55	56	0.017551018370856198	0.008940849386931012	0	0	0	0	0	0	1	-360	360;
	56	57	0.09920412090174674	0.033298892657397626	0	0	0	0	0	0	1	-360	360;
	57	58	0.0488970248746534	0.016409235092553077	0	0	0	0	0	0	1	-360	360;
	58	59	0.01897980728195683	0.006276688404223724	0	0	0	0	0	0	1	-360	360;
	59	60	0.02408975539632982	0.007312404383449508	0	0	0	0	0	0	1	-360	360;
	60	61	0.03166420840102922	0.016128468712642473	0	0	0	0	0	0	1	-360	360;
	61	62	0.006077032311842851	0.003094669431903546	0	0	0	0	0	0	1	-360	360;
	62	63	0.00904691668600835	0.004604568630533905	0	0	0	0	0	0	1	-360	360;
	63	64	0.04432989176144092	0.022579856197699463	0	0	0	0	0	0	1	-360	360;
	64	65	0.06495062255265305	0.033080518806356055	0	0	0	0	0	0	1	-360	360;
	11	66	0.012553376808447448	0.003812183513897312	0	0	0	0	0	0	1	-360	360;
	66	67	0.0002932448856844086	8.734954041663235e-05	0	0	0	0	0	0	1	-360	360;
	12	68	0.046133035845755684	0.015248734055589248	0	0	0	0	0	0	1	-360	360;
	68	69	0.0002932448856844086	9.982804619043698e-05	0	0	0	0	0	0	1	-360	360;
];

mpc.gencost = [
	2	0	0	3	0	20	0;
];
